* SPICE netlist generated by Yosys 0.7+653 (git sha1 ddc1761f, clang 6.0.0-1ubuntu2 -fPIC -Os)

.SUBCKT PWM2 clk reset dt.0 dt.1 dt.2 dt.3 dt.4 dt.5 dt.6 dt.7 dt.8 dt.9 dt.10 dt.11 dt.12 dt.13 dt.14 dt.15 counter_in.0 counter_in.1 counter_in.2 counter_in.3 counter_in.4 counter_in.5 counter_in.6 counter_in.7 counter_in.8 counter_in.9 counter_in.10 counter_in.11 counter_in.12 counter_in.13 counter_in.14 counter_in.15 compare1.0 compare1.1 compare1.2 compare1.3 compare1.4 compare1.5 compare1.6 compare1.7 compare1.8 compare1.9 compare1.10 compare1.11 compare1.12 compare1.13 compare1.14 compare1.15 compare2.0 compare2.1 compare2.2 compare2.3 compare2.4 compare2.5 compare2.6 compare2.7 compare2.8 compare2.9 compare2.10 compare2.11 compare2.12 compare2.13 compare2.14 compare2.15 compare3.0 compare3.1 compare3.2 compare3.3 compare3.4 compare3.5 compare3.6 compare3.7 compare3.8 compare3.9 compare3.10 compare3.11 compare3.12 compare3.13 compare3.14 compare3.15 compare4.0 compare4.1 compare4.2 compare4.3 compare4.4 compare4.5 compare4.6 compare4.7 compare4.8 compare4.9 compare4.10 compare4.11 compare4.12 compare4.13 compare4.14 compare4.15 compare5.0 compare5.1 compare5.2 compare5.3 compare5.4 compare5.5 compare5.6 compare5.7 compare5.8 compare5.9 compare5.10 compare5.11 compare5.12 compare5.13 compare5.14 compare5.15 compare6.0 compare6.1 compare6.2 compare6.3 compare6.4 compare6.5 compare6.6 compare6.7 compare6.8 compare6.9 compare6.10 compare6.11 compare6.12 compare6.13 compare6.14 compare6.15 pwm_out_1 pwm_out_2 pwm_out_3 pwm1h pwm1l pwm2h pwm2l pwm3h pwm3l
X0 dt.0 1 NOT
X1 dt.1 2 NOT
X2 dt.2 3 NOT
X3 dt.3 4 NOT
X4 dt.4 5 NOT
X5 dt.5 6 NOT
X6 dt.6 7 NOT
X7 dt.7 8 NOT
X8 dt.8 9 NOT
X9 dt.9 10 NOT
X10 dt.10 11 NOT
X11 dt.11 12 NOT
X12 dt.12 13 NOT
X13 dt.13 14 NOT
X14 dt.14 15 NOT
X15 dt.15 16 NOT
X16 compare2.0 17 NOT
X17 compare2.1 18 NOT
X18 compare2.2 19 NOT
X19 compare2.3 20 NOT
X20 compare2.5 21 NOT
X21 compare2.6 22 NOT
X22 compare2.7 23 NOT
X23 compare2.8 24 NOT
X24 compare2.9 25 NOT
X25 compare2.10 26 NOT
X26 compare2.11 27 NOT
X27 compare2.13 28 NOT
X28 compare2.14 29 NOT
X29 compare2.15 30 NOT
X30 compare5.0 31 NOT
X31 compare5.1 32 NOT
X32 compare5.3 33 NOT
X33 compare5.4 34 NOT
X34 compare5.5 35 NOT
X35 compare5.6 36 NOT
X36 compare5.7 37 NOT
X37 compare5.8 38 NOT
X38 compare5.9 39 NOT
X39 compare5.10 40 NOT
X40 compare5.11 41 NOT
X41 compare5.12 42 NOT
X42 compare5.13 43 NOT
X43 compare5.14 44 NOT
X44 compare5.15 45 NOT
X45 compare3.0 46 NOT
X46 compare3.1 47 NOT
X47 compare3.2 48 NOT
X48 compare3.3 49 NOT
X49 compare3.4 50 NOT
X50 compare3.5 51 NOT
X51 compare3.6 52 NOT
X52 compare3.7 53 NOT
X53 compare3.8 54 NOT
X54 compare3.9 55 NOT
X55 compare3.10 56 NOT
X56 compare3.11 57 NOT
X57 compare3.12 58 NOT
X58 compare3.13 59 NOT
X59 compare3.14 60 NOT
X60 compare3.15 61 NOT
X61 compare4.0 62 NOT
X62 compare4.1 63 NOT
X63 compare4.2 64 NOT
X64 compare4.3 65 NOT
X65 compare4.4 66 NOT
X66 compare4.5 67 NOT
X67 compare4.6 68 NOT
X68 compare4.7 69 NOT
X69 compare4.8 70 NOT
X70 compare4.9 71 NOT
X71 compare4.10 72 NOT
X72 compare4.11 73 NOT
X73 compare4.12 74 NOT
X74 compare4.13 75 NOT
X75 compare4.14 76 NOT
X76 compare4.15 77 NOT
X77 compare1.1 78 NOT
X78 compare1.2 79 NOT
X79 compare1.3 80 NOT
X80 compare1.4 81 NOT
X81 compare1.5 82 NOT
X82 compare1.6 83 NOT
X83 compare1.7 84 NOT
X84 compare1.8 85 NOT
X85 compare1.9 86 NOT
X86 compare1.10 87 NOT
X87 compare1.11 88 NOT
X88 compare1.12 89 NOT
X89 compare1.13 90 NOT
X90 compare1.14 91 NOT
X91 compare1.15 92 NOT
X92 compare6.0 93 NOT
X93 compare6.1 94 NOT
X94 compare6.2 95 NOT
X95 compare6.3 96 NOT
X96 compare6.4 97 NOT
X97 compare6.5 98 NOT
X98 compare6.6 99 NOT
X99 compare6.7 100 NOT
X100 compare6.8 101 NOT
X101 compare6.9 102 NOT
X102 compare6.10 103 NOT
X103 compare6.11 104 NOT
X104 compare6.12 105 NOT
X105 compare6.13 106 NOT
X106 compare6.14 107 NOT
X107 compare6.15 108 NOT
X108 counter_in.0 109 NOT
X109 counter_in.1 110 NOT
X110 counter_in.2 111 NOT
X111 counter_in.3 112 NOT
X112 counter_in.4 113 NOT
X113 counter_in.5 114 NOT
X114 counter_in.6 115 NOT
X115 counter_in.7 116 NOT
X116 counter_in.8 117 NOT
X117 counter_in.9 118 NOT
X118 counter_in.10 119 NOT
X119 counter_in.11 120 NOT
X120 counter_in.12 121 NOT
X121 counter_in.13 122 NOT
X122 counter_in.14 123 NOT
X123 counter_in.15 124 NOT
X124 15 76 125 NOR
X125 dt.14 compare4.14 126 NAND
X126 dt.14 compare4.14 127 NOR
X127 127 128 NOT
X128 125 127 129 NOR
X129 126 128 130 NAND
X130 dt.13 compare4.13 131 NOR
X131 14 75 132 NOR
X132 13 74 133 NOR
X133 dt.12 compare4.12 134 NAND
X134 dt.12 compare4.12 135 NOR
X135 135 136 NOT
X136 133 135 137 NOR
X137 134 136 138 NAND
X138 12 73 139 NOR
X139 dt.11 compare4.11 140 NAND
X140 dt.11 compare4.11 141 NOR
X141 12 73 142 NAND
X142 11 72 143 NOR
X143 dt.10 compare4.10 144 NAND
X144 dt.10 compare4.10 145 NOR
X145 145 146 NOT
X146 143 145 147 NOR
X147 144 146 148 NAND
X148 dt.9 compare4.9 149 NOR
X149 10 71 150 NOR
X150 9 70 151 NOR
X151 dt.8 compare4.8 152 NAND
X152 dt.8 compare4.8 153 NOR
X153 153 154 NOT
X154 151 153 155 NOR
X155 152 154 156 NAND
X156 8 69 157 NOR
X157 dt.7 compare4.7 158 NAND
X158 dt.7 compare4.7 159 NOR
X159 8 69 160 NAND
X160 7 68 161 NOR
X161 dt.6 compare4.6 162 NAND
X162 dt.6 compare4.6 163 NOR
X163 163 164 NOT
X164 161 163 165 NOR
X165 162 164 166 NAND
X166 6 67 167 NOR
X167 dt.5 compare4.5 168 NAND
X168 dt.5 compare4.5 169 NOR
X169 6 67 170 NAND
X170 5 66 171 NOR
X171 dt.4 compare4.4 172 NAND
X172 dt.4 compare4.4 173 NOR
X173 173 174 NOT
X174 172 174 175 NAND
X175 175 176 NOT
X176 4 65 177 NOR
X177 dt.3 compare4.3 178 NAND
X178 dt.3 compare4.3 179 NOR
X179 4 65 180 NAND
X180 3 64 181 NOR
X181 dt.2 compare4.2 182 NAND
X182 2 63 183 NOR
X183 dt.1 compare4.1 184 NAND
X184 dt.1 compare4.1 185 NOR
X185 185 186 NOT
X186 183 185 187 NOR
X187 184 186 188 NAND
X188 1 62 189 NOR
X189 dt.0 compare4.0 190 NAND
X190 188 190 191 NOR
X191 187 189 192 NAND
X192 183 191 193 NOR
X193 184 192 194 NAND
X194 dt.2 compare4.2 195 NOR
X195 181 195 196 NOR
X196 196 197 NOT
X197 193 197 198 NOR
X198 194 196 199 NAND
X199 181 198 200 NOR
X200 182 199 201 NAND
X201 179 200 202 NOR
X202 180 201 203 NAND
X203 177 202 204 NOR
X204 178 203 205 NAND
X205 175 204 206 NOR
X206 176 205 207 NAND
X207 171 206 208 NOR
X208 172 207 209 NAND
X209 169 208 210 NOR
X210 170 209 211 NAND
X211 167 210 212 NOR
X212 168 211 213 NAND
X213 166 212 214 NOR
X214 165 213 215 NAND
X215 161 214 216 NOR
X216 162 215 217 NAND
X217 159 216 218 NOR
X218 160 217 219 NAND
X219 157 218 220 NOR
X220 158 219 221 NAND
X221 156 220 222 NOR
X222 155 221 223 NAND
X223 151 222 224 NOR
X224 152 223 225 NAND
X225 150 225 226 NOR
X226 149 224 227 NOR
X227 149 226 228 NOR
X228 150 227 229 NOR
X229 148 229 230 NOR
X230 147 228 231 NAND
X231 143 230 232 NOR
X232 144 231 233 NAND
X233 141 232 234 NOR
X234 142 233 235 NAND
X235 139 234 236 NOR
X236 140 235 237 NAND
X237 138 236 238 NOR
X238 137 237 239 NAND
X239 133 238 240 NOR
X240 134 239 241 NAND
X241 132 241 242 NOR
X242 131 240 243 NOR
X243 131 242 244 NOR
X244 132 243 245 NOR
X245 130 245 246 NOR
X246 129 244 247 NAND
X247 125 246 248 NOR
X248 126 247 249 NAND
X249 dt.15 compare4.15 250 NOR
X250 250 251 NOT
X251 dt.15 compare4.15 252 NAND
X252 252 253 NOT
X253 251 252 254 NAND
X254 250 253 255 NOR
X255 248 255 256 NAND
X256 249 254 257 NAND
X257 256 257 258 NAND
X258 124 258 259 NAND
X259 129 244 260 NOR
X260 130 245 261 NAND
X261 246 260 262 NOR
X262 247 261 263 NAND
X263 counter_in.14 263 264 NOR
X264 123 262 265 NOR
X265 131 132 266 NOR
X266 266 267 NOT
X267 240 266 268 NOR
X268 241 267 269 NAND
X269 241 267 270 NOR
X270 240 266 271 NAND
X271 268 270 272 NOR
X272 269 271 273 NAND
X273 counter_in.13 272 274 NAND
X274 122 273 275 NAND
X275 138 236 276 NAND
X276 239 276 277 NAND
X277 counter_in.12 277 278 NAND
X278 counter_in.12 277 279 NOR
X279 139 141 280 NOR
X280 140 142 281 NAND
X281 232 281 282 NAND
X282 233 280 283 NAND
X283 282 283 284 NAND
X284 counter_in.11 284 285 NAND
X285 147 228 286 NOR
X286 148 229 287 NAND
X287 230 286 288 NOR
X288 231 287 289 NAND
X289 119 288 290 NOR
X290 counter_in.10 289 291 NOR
X291 149 150 292 NOR
X292 292 293 NOT
X293 225 292 294 NOR
X294 224 293 295 NAND
X295 224 293 296 NOR
X296 225 292 297 NAND
X297 294 296 298 NOR
X298 295 297 299 NAND
X299 118 298 300 NAND
X300 counter_in.9 299 301 NAND
X301 155 221 302 NOR
X302 156 220 303 NAND
X303 222 302 304 NOR
X304 223 303 305 NAND
X305 117 304 306 NOR
X306 counter_in.8 305 307 NOR
X307 157 159 308 NOR
X308 158 160 309 NAND
X309 216 308 310 NOR
X310 217 309 311 NAND
X311 217 309 312 NOR
X312 216 308 313 NAND
X313 310 312 314 NOR
X314 311 313 315 NAND
X315 116 315 316 NOR
X316 counter_in.7 314 317 NOR
X317 165 213 318 NOR
X318 166 212 319 NAND
X319 214 318 320 NOR
X320 215 319 321 NAND
X321 115 320 322 NOR
X322 counter_in.6 321 323 NOR
X323 167 169 324 NOR
X324 168 170 325 NAND
X325 208 324 326 NOR
X326 209 325 327 NAND
X327 209 325 328 NOR
X328 208 324 329 NAND
X329 326 328 330 NOR
X330 327 329 331 NAND
X331 114 331 332 NOR
X332 counter_in.5 330 333 NOR
X333 175 204 334 NAND
X334 207 334 335 NAND
X335 counter_in.4 335 336 NAND
X336 336 337 NOT
X337 counter_in.4 335 338 NOR
X338 177 179 339 NOR
X339 178 180 340 NAND
X340 201 339 341 NOR
X341 200 340 342 NAND
X342 200 340 343 NOR
X343 201 339 344 NAND
X344 341 343 345 NOR
X345 342 344 346 NAND
X346 112 345 347 NOR
X347 counter_in.3 346 348 NOR
X348 counter_in.1 188 349 NOR
X349 62 counter_in.0 350 NOR
X350 1 62 351 NAND
X351 109 351 352 NAND
X352 190 352 353 NAND
X353 349 353 354 NOR
X354 counter_in.1 188 355 NAND
X355 192 355 356 NAND
X356 354 356 357 NOR
X357 194 196 358 NOR
X358 193 197 359 NAND
X359 198 358 360 NOR
X360 199 359 361 NAND
X361 111 360 362 NOR
X362 counter_in.2 361 363 NOR
X363 357 363 364 NOR
X364 362 364 365 NOR
X365 348 365 366 NOR
X366 347 366 367 NOR
X367 338 367 368 NOR
X368 337 368 369 NOR
X369 333 369 370 NOR
X370 332 370 371 NOR
X371 323 371 372 NOR
X372 322 372 373 NOR
X373 317 373 374 NOR
X374 316 374 375 NOR
X375 307 375 376 NOR
X376 306 376 377 NOR
X377 301 377 378 NAND
X378 300 378 379 NAND
X379 291 379 380 NOR
X380 290 380 381 NOR
X381 285 381 382 NAND
X382 counter_in.11 284 383 NOR
X383 279 383 384 NOR
X384 382 384 385 NAND
X385 278 385 386 NAND
X386 275 386 387 NAND
X387 274 387 388 NAND
X388 265 388 389 NOR
X389 264 389 390 NOR
X390 259 390 391 NAND
X391 124 258 392 NOR
X392 59 counter_in.13 393 NOR
X393 61 counter_in.15 394 NAND
X394 60 counter_in.14 395 NOR
X395 compare3.14 123 396 NOR
X396 395 396 397 NOR
X397 compare3.15 124 398 NAND
X398 394 398 399 NAND
X399 393 399 400 NOR
X400 397 400 401 NAND
X401 compare3.12 121 402 NOR
X402 compare3.13 122 403 NOR
X403 402 403 404 NOR
X404 compare3.12 121 405 NAND
X405 404 405 406 NAND
X406 401 406 407 NOR
X407 compare3.11 120 408 NAND
X408 408 409 NOT
X409 57 counter_in.11 410 NAND
X410 56 counter_in.10 411 NAND
X411 410 411 412 NAND
X412 408 412 413 NAND
X413 compare3.8 117 414 NOR
X414 compare3.9 118 415 NOR
X415 414 415 416 NOR
X416 53 counter_in.7 417 NOR
X417 compare3.7 116 418 NAND
X418 52 counter_in.6 419 NAND
X419 53 counter_in.7 420 NAND
X420 419 420 421 NAND
X421 418 421 422 NAND
X422 compare3.6 115 423 NAND
X423 51 counter_in.5 424 NOR
X424 417 424 425 NOR
X425 423 425 426 NAND
X426 421 426 427 NOR
X427 compare3.4 113 428 NOR
X428 compare3.5 114 429 NOR
X429 428 429 430 NOR
X430 49 counter_in.3 431 NOR
X431 compare3.3 112 432 NOR
X432 431 432 433 NOR
X433 433 434 NOT
X434 48 counter_in.2 435 NAND
X435 435 436 NOT
X436 48 counter_in.2 437 NOR
X437 compare3.2 111 438 NAND
X438 436 437 439 NOR
X439 435 438 440 NAND
X440 434 440 441 NOR
X441 433 439 442 NAND
X442 compare3.1 110 443 NOR
X443 47 counter_in.1 444 NAND
X444 46 counter_in.0 445 NOR
X445 compare3.0 109 446 NAND
X446 47 counter_in.1 447 NOR
X447 compare3.1 110 448 NAND
X448 445 447 449 NOR
X449 446 448 450 NAND
X450 444 450 451 NAND
X451 441 451 452 NAND
X452 431 435 453 NOR
X453 432 453 454 NOR
X454 452 454 455 NAND
X455 50 counter_in.4 456 NOR
X456 compare3.4 113 457 NAND
X457 455 457 458 NAND
X458 430 458 459 NAND
X459 427 459 460 NAND
X460 422 460 461 NAND
X461 54 counter_in.8 462 NOR
X462 compare3.8 117 463 NAND
X463 461 463 464 NAND
X464 416 464 465 NAND
X465 55 counter_in.9 466 NOR
X466 compare3.10 119 467 NAND
X467 408 467 468 NAND
X468 409 412 469 NOR
X469 412 468 470 NOR
X470 467 469 471 NAND
X471 466 471 472 NOR
X472 465 472 473 NAND
X473 413 473 474 NAND
X474 407 474 475 NAND
X475 401 404 476 NOR
X476 396 398 477 NAND
X477 394 477 478 NAND
X478 476 478 479 NOR
X479 475 479 480 NAND
X480 46 counter_in.0 481 NAND
X481 443 466 482 NOR
X482 481 482 483 NAND
X483 442 483 484 NOR
X484 470 484 485 NAND
X485 456 462 486 NOR
X486 416 486 487 NAND
X487 430 449 488 NAND
X488 487 488 489 NOR
X489 427 489 490 NAND
X490 485 490 491 NOR
X491 407 491 492 NAND
X492 480 492 493 NAND
X493 392 493 494 NOR
X494 391 494 495 NAND
X495 dt.14 compare3.14 496 NAND
X496 496 497 NOT
X497 dt.14 compare3.14 498 NOR
X498 498 499 NOT
X499 496 499 500 NAND
X500 500 501 NOT
X501 14 59 502 NOR
X502 dt.13 compare3.13 503 NAND
X503 dt.13 compare3.13 504 NOR
X504 14 59 505 NAND
X505 13 58 506 NOR
X506 dt.12 compare3.12 507 NAND
X507 dt.12 compare3.12 508 NOR
X508 508 509 NOT
X509 506 508 510 NOR
X510 507 509 511 NAND
X511 12 57 512 NOR
X512 dt.11 compare3.11 513 NAND
X513 dt.11 compare3.11 514 NOR
X514 12 57 515 NAND
X515 dt.10 compare3.10 516 NAND
X516 516 517 NOT
X517 dt.10 compare3.10 518 NOR
X518 518 519 NOT
X519 516 519 520 NAND
X520 520 521 NOT
X521 dt.9 compare3.9 522 NAND
X522 10 55 523 NAND
X523 9 54 524 NOR
X524 dt.8 compare3.8 525 NAND
X525 8 53 526 NOR
X526 dt.7 compare3.7 527 NAND
X527 dt.6 compare3.6 528 NAND
X528 528 529 NOT
X529 dt.5 compare3.5 530 NAND
X530 530 531 NOT
X531 dt.4 compare3.4 532 NAND
X532 532 533 NOT
X533 dt.4 compare3.4 534 NOR
X534 534 535 NOT
X535 532 535 536 NAND
X536 536 537 NOT
X537 4 49 538 NOR
X538 dt.3 compare3.3 539 NOR
X539 dt.2 compare3.2 540 NAND
X540 540 541 NOT
X541 2 47 542 NOR
X542 dt.1 compare3.1 543 NAND
X543 dt.0 compare3.0 544 NAND
X544 544 545 NOT
X545 dt.1 compare3.1 546 NOR
X546 546 547 NOT
X547 542 546 548 NOR
X548 543 547 549 NAND
X549 544 549 550 NOR
X550 545 548 551 NAND
X551 542 550 552 NOR
X552 543 551 553 NAND
X553 dt.2 compare3.2 554 NOR
X554 554 555 NOT
X555 540 555 556 NAND
X556 556 557 NOT
X557 552 556 558 NOR
X558 553 557 559 NAND
X559 541 558 560 NOR
X560 540 559 561 NAND
X561 539 560 562 NOR
X562 538 561 563 NOR
X563 538 562 564 NOR
X564 539 563 565 NOR
X565 536 564 566 NOR
X566 537 565 567 NAND
X567 533 566 568 NOR
X568 532 567 569 NAND
X569 dt.5 compare3.5 570 NOR
X570 570 571 NOT
X571 530 571 572 NAND
X572 572 573 NOT
X573 568 572 574 NOR
X574 569 573 575 NAND
X575 531 574 576 NOR
X576 530 575 577 NAND
X577 dt.6 compare3.6 578 NOR
X578 578 579 NOT
X579 528 579 580 NAND
X580 580 581 NOT
X581 576 580 582 NOR
X582 577 581 583 NAND
X583 529 582 584 NOR
X584 528 583 585 NAND
X585 dt.7 compare3.7 586 NOR
X586 526 586 587 NOR
X587 587 588 NOT
X588 584 588 589 NOR
X589 585 587 590 NAND
X590 526 589 591 NOR
X591 527 590 592 NAND
X592 dt.8 compare3.8 593 NOR
X593 524 593 594 NOR
X594 594 595 NOT
X595 591 595 596 NOR
X596 592 594 597 NAND
X597 524 596 598 NOR
X598 525 597 599 NAND
X599 523 599 600 NAND
X600 522 598 601 NAND
X601 523 601 602 NAND
X602 522 600 603 NAND
X603 520 602 604 NOR
X604 521 603 605 NAND
X605 517 604 606 NOR
X606 516 605 607 NAND
X607 514 606 608 NOR
X608 515 607 609 NAND
X609 512 608 610 NOR
X610 513 609 611 NAND
X611 511 610 612 NOR
X612 510 611 613 NAND
X613 506 612 614 NOR
X614 507 613 615 NAND
X615 504 614 616 NOR
X616 505 615 617 NAND
X617 502 616 618 NOR
X618 503 617 619 NAND
X619 500 618 620 NOR
X620 501 619 621 NAND
X621 497 620 622 NOR
X622 496 621 623 NAND
X623 dt.15 compare3.15 624 NOR
X624 624 625 NOT
X625 dt.15 compare3.15 626 NAND
X626 626 627 NOT
X627 625 626 628 NAND
X628 624 627 629 NOR
X629 623 628 630 NOR
X630 630 631 NOT
X631 622 629 632 NOR
X632 623 628 633 NAND
X633 630 632 634 NOR
X634 631 633 635 NAND
X635 counter_in.15 634 636 NAND
X636 512 514 637 NOR
X637 513 515 638 NAND
X638 606 637 639 NOR
X639 607 638 640 NOR
X640 639 640 641 NOR
X641 counter_in.11 641 642 NOR
X642 520 602 643 NAND
X643 605 643 644 NAND
X644 counter_in.10 644 645 NAND
X645 645 646 NOT
X646 counter_in.10 644 647 NOR
X647 646 647 648 NOR
X648 counter_in.11 641 649 NAND
X649 649 650 NOT
X650 648 649 651 NAND
X651 642 651 652 NOR
X652 592 594 653 NOR
X653 596 653 654 NOR
X654 654 655 NOT
X655 counter_in.8 655 656 NAND
X656 522 523 657 NAND
X657 599 657 658 NAND
X658 658 659 NOT
X659 599 657 660 NOR
X660 659 660 661 NOR
X661 counter_in.9 661 662 NAND
X662 656 662 663 NAND
X663 663 664 NOT
X664 counter_in.9 661 665 NOR
X665 117 654 666 NAND
X666 664 666 667 NAND
X667 665 667 668 NOR
X668 652 668 669 NAND
X669 544 549 670 NAND
X670 551 670 671 NAND
X671 counter_in.1 671 672 NAND
X672 672 673 NOT
X673 counter_in.1 671 674 NOR
X674 dt.0 compare3.0 675 NOR
X675 545 675 676 NOR
X676 109 676 677 NAND
X677 673 674 678 NOR
X678 677 678 679 NAND
X679 672 679 680 NAND
X680 552 556 681 NAND
X681 559 681 682 NAND
X682 counter_in.2 682 683 NOR
X683 538 539 684 NOR
X684 561 684 685 NOR
X685 685 686 NOT
X686 561 684 687 NAND
X687 686 687 688 NAND
X688 counter_in.3 688 689 NAND
X689 counter_in.2 682 690 NAND
X690 689 690 691 NAND
X691 683 691 692 NOR
X692 692 693 NOT
X693 585 587 694 NOR
X694 694 695 NOT
X695 590 695 696 NAND
X696 counter_in.7 696 697 NAND
X697 576 580 698 NAND
X698 583 698 699 NAND
X699 counter_in.6 699 700 NAND
X700 697 700 701 NAND
X701 701 702 NOT
X702 counter_in.7 696 703 NOR
X703 counter_in.6 699 704 NOR
X704 703 704 705 NOR
X705 702 705 706 NAND
X706 536 564 707 NAND
X707 567 707 708 NAND
X708 counter_in.4 708 709 NAND
X709 568 572 710 NAND
X710 575 710 711 NAND
X711 counter_in.5 711 712 NAND
X712 709 712 713 NAND
X713 counter_in.5 711 714 NOR
X714 714 715 NOT
X715 counter_in.3 688 716 NOR
X716 716 717 NOT
X717 counter_in.4 708 718 NOR
X718 718 719 NOT
X719 713 714 720 NOR
X720 719 720 721 NAND
X721 706 721 722 NOR
X722 722 723 NOT
X723 693 716 724 NOR
X724 692 717 725 NAND
X725 723 725 726 NOR
X726 722 724 727 NAND
X727 680 726 728 NAND
X728 691 722 729 NAND
X729 716 729 730 NOR
X730 702 703 731 NOR
X731 713 715 732 NAND
X732 706 732 733 NOR
X733 730 733 734 NOR
X734 728 734 735 NAND
X735 731 735 736 NOR
X736 669 736 737 NOR
X737 664 665 738 NOR
X738 652 738 739 NAND
X739 642 645 740 NOR
X740 650 740 741 NOR
X741 739 741 742 NAND
X742 737 742 743 NOR
X743 510 611 744 NOR
X744 511 610 745 NAND
X745 612 744 746 NOR
X746 613 745 747 NAND
X747 121 746 748 NAND
X748 109 676 749 NOR
X749 727 749 750 NOR
X750 669 679 751 NOR
X751 750 751 752 NAND
X752 748 752 753 NAND
X753 743 753 754 NOR
X754 502 504 755 NOR
X755 503 505 756 NAND
X756 614 755 757 NOR
X757 615 756 758 NOR
X758 757 758 759 NOR
X759 counter_in.13 759 760 NAND
X760 counter_in.12 747 761 NAND
X761 760 761 762 NAND
X762 754 762 763 NOR
X763 500 618 764 NAND
X764 621 764 765 NAND
X765 counter_in.14 765 766 NOR
X766 counter_in.13 759 767 NOR
X767 766 767 768 NOR
X768 768 769 NOT
X769 763 769 770 NOR
X770 counter_in.14 765 771 NAND
X771 636 771 772 NAND
X772 770 772 773 NOR
X773 124 635 774 NAND
X774 73 counter_in.11 775 NOR
X775 compare4.11 120 776 NAND
X776 compare4.11 120 777 NOR
X777 compare4.10 119 778 NOR
X778 777 778 779 NOR
X779 775 779 780 NOR
X780 72 counter_in.10 781 NOR
X781 776 779 782 NAND
X782 781 782 783 NOR
X783 compare4.9 118 784 NOR
X784 compare4.8 117 785 NOR
X785 784 785 786 NOR
X786 71 counter_in.9 787 NOR
X787 786 787 788 NOR
X788 compare4.6 115 789 NAND
X789 67 counter_in.5 790 NAND
X790 compare4.4 113 791 NOR
X791 65 counter_in.3 792 NOR
X792 compare4.3 112 793 NOR
X793 64 counter_in.2 794 NOR
X794 64 counter_in.2 795 NAND
X795 compare4.1 110 796 NAND
X796 63 counter_in.1 797 NAND
X797 350 797 798 NAND
X798 796 798 799 NAND
X799 795 799 800 NAND
X800 792 794 801 NOR
X801 800 801 802 NAND
X802 791 793 803 NOR
X803 802 803 804 NAND
X804 67 counter_in.5 805 NOR
X805 66 counter_in.4 806 NOR
X806 805 806 807 NOR
X807 804 807 808 NAND
X808 790 808 809 NAND
X809 789 809 810 NAND
X810 compare4.7 116 811 NOR
X811 compare4.6 115 812 NOR
X812 811 812 813 NOR
X813 810 813 814 NAND
X814 70 counter_in.8 815 NOR
X815 787 815 816 NOR
X816 compare4.7 116 817 NAND
X817 816 817 818 NAND
X818 783 786 819 NAND
X819 818 819 820 NOR
X820 814 820 821 NAND
X821 783 788 822 NAND
X822 821 822 823 NAND
X823 780 823 824 NOR
X824 compare4.15 124 825 NOR
X825 77 counter_in.15 826 NAND
X826 compare4.14 123 827 NOR
X827 76 counter_in.14 828 NAND
X828 825 827 829 NOR
X829 826 828 830 NAND
X830 77 counter_in.15 831 NOR
X831 compare4.15 124 832 NAND
X832 76 counter_in.14 833 NOR
X833 compare4.14 123 834 NAND
X834 831 833 835 NOR
X835 832 834 836 NAND
X836 830 836 837 NOR
X837 829 835 838 NAND
X838 75 counter_in.13 839 NOR
X839 compare4.13 122 840 NAND
X840 compare4.12 121 841 NAND
X841 840 841 842 NAND
X842 compare4.13 122 843 NOR
X843 75 counter_in.13 844 NAND
X844 compare4.12 121 845 NOR
X845 74 counter_in.12 846 NAND
X846 843 845 847 NOR
X847 844 846 848 NAND
X848 842 848 849 NOR
X849 837 849 850 NAND
X850 824 850 851 NOR
X851 830 832 852 NAND
X852 839 847 853 NOR
X853 840 848 854 NAND
X854 838 854 855 NOR
X855 837 853 856 NAND
X856 852 856 857 NAND
X857 851 855 858 NOR
X858 851 857 859 NOR
X859 852 858 860 NAND
X860 774 859 861 NAND
X861 773 861 862 NOR
X862 493 860 863 NOR
X863 13 42 864 NOR
X864 dt.12 compare5.12 865 NAND
X865 dt.12 compare5.12 866 NOR
X866 866 867 NOT
X867 864 866 868 NOR
X868 865 867 869 NAND
X869 12 41 870 NOR
X870 dt.11 compare5.11 871 NAND
X871 dt.11 compare5.11 872 NOR
X872 12 41 873 NAND
X873 11 40 874 NOR
X874 dt.10 compare5.10 875 NAND
X875 dt.10 compare5.10 876 NOR
X876 876 877 NOT
X877 874 876 878 NOR
X878 875 877 879 NAND
X879 10 39 880 NOR
X880 dt.9 compare5.9 881 NAND
X881 dt.9 compare5.9 882 NOR
X882 10 39 883 NAND
X883 dt.8 compare5.8 884 NAND
X884 884 885 NOT
X885 dt.8 compare5.8 886 NOR
X886 886 887 NOT
X887 884 887 888 NAND
X888 888 889 NOT
X889 8 37 890 NOR
X890 dt.7 compare5.7 891 NAND
X891 dt.7 compare5.7 892 NOR
X892 8 37 893 NAND
X893 7 36 894 NOR
X894 dt.6 compare5.6 895 NAND
X895 dt.6 compare5.6 896 NOR
X896 896 897 NOT
X897 894 896 898 NOR
X898 895 897 899 NAND
X899 6 35 900 NOR
X900 dt.5 compare5.5 901 NAND
X901 dt.5 compare5.5 902 NOR
X902 6 35 903 NAND
X903 5 34 904 NOR
X904 dt.4 compare5.4 905 NAND
X905 dt.4 compare5.4 906 NOR
X906 906 907 NOT
X907 904 906 908 NOR
X908 905 907 909 NAND
X909 4 33 910 NOR
X910 dt.3 compare5.3 911 NAND
X911 dt.3 compare5.3 912 NOR
X912 4 33 913 NAND
X913 dt.2 compare5.2 914 NAND
X914 914 915 NOT
X915 2 32 916 NOR
X916 dt.1 compare5.1 917 NAND
X917 dt.1 compare5.1 918 NOR
X918 918 919 NOT
X919 916 918 920 NOR
X920 917 919 921 NAND
X921 1 31 922 NOR
X922 dt.0 compare5.0 923 NAND
X923 921 923 924 NOR
X924 920 922 925 NAND
X925 916 924 926 NOR
X926 917 925 927 NAND
X927 dt.2 compare5.2 928 NOR
X928 928 929 NOT
X929 914 929 930 NAND
X930 930 931 NOT
X931 926 930 932 NOR
X932 927 931 933 NAND
X933 915 932 934 NOR
X934 914 933 935 NAND
X935 912 934 936 NOR
X936 913 935 937 NAND
X937 910 936 938 NOR
X938 911 937 939 NAND
X939 909 938 940 NOR
X940 908 939 941 NAND
X941 904 940 942 NOR
X942 905 941 943 NAND
X943 902 942 944 NOR
X944 903 943 945 NAND
X945 900 944 946 NOR
X946 901 945 947 NAND
X947 899 946 948 NOR
X948 898 947 949 NAND
X949 894 948 950 NOR
X950 895 949 951 NAND
X951 892 950 952 NOR
X952 893 951 953 NAND
X953 890 952 954 NOR
X954 891 953 955 NAND
X955 888 954 956 NOR
X956 889 955 957 NAND
X957 885 956 958 NOR
X958 884 957 959 NAND
X959 882 958 960 NOR
X960 883 959 961 NAND
X961 880 960 962 NOR
X962 881 961 963 NAND
X963 879 962 964 NOR
X964 878 963 965 NAND
X965 874 964 966 NOR
X966 875 965 967 NAND
X967 872 966 968 NOR
X968 873 967 969 NAND
X969 870 968 970 NOR
X970 871 969 971 NAND
X971 869 970 972 NOR
X972 868 971 973 NAND
X973 864 972 974 NOR
X974 865 973 975 NAND
X975 dt.13 compare5.13 976 NOR
X976 14 43 977 NAND
X977 14 43 978 NOR
X978 dt.13 compare5.13 979 NAND
X979 976 978 980 NOR
X980 977 979 981 NAND
X981 974 980 982 NOR
X982 975 981 983 NOR
X983 982 983 984 NOR
X984 counter_in.13 984 985 NOR
X985 868 971 986 NOR
X986 869 970 987 NAND
X987 972 986 988 NOR
X988 973 987 989 NAND
X989 121 988 990 NOR
X990 878 963 991 NOR
X991 879 962 992 NAND
X992 964 991 993 NOR
X993 965 992 994 NAND
X994 119 993 995 NOR
X995 870 872 996 NOR
X996 871 873 997 NAND
X997 967 997 998 NAND
X998 966 996 999 NAND
X999 998 999 1000 NAND
X1000 120 1000 1001 NOR
X1001 995 1001 1002 NOR
X1002 880 882 1003 NOR
X1003 881 883 1004 NAND
X1004 958 1003 1005 NOR
X1005 959 1004 1006 NOR
X1006 1005 1006 1007 NOR
X1007 counter_in.9 1007 1008 NAND
X1008 888 954 1009 NAND
X1009 957 1009 1010 NAND
X1010 counter_in.8 1010 1011 NAND
X1011 1008 1011 1012 NAND
X1012 1012 1013 NOT
X1013 898 947 1014 NOR
X1014 899 946 1015 NAND
X1015 948 1014 1016 NOR
X1016 949 1015 1017 NAND
X1017 counter_in.6 1017 1018 NOR
X1018 115 1016 1019 NOR
X1019 900 902 1020 NOR
X1020 901 903 1021 NAND
X1021 942 1020 1022 NOR
X1022 943 1021 1023 NAND
X1023 943 1021 1024 NOR
X1024 942 1020 1025 NAND
X1025 1022 1024 1026 NOR
X1026 1023 1025 1027 NAND
X1027 114 1027 1028 NOR
X1028 908 939 1029 NOR
X1029 909 938 1030 NAND
X1030 940 1029 1031 NOR
X1031 941 1030 1032 NAND
X1032 counter_in.4 1032 1033 NAND
X1033 113 1031 1034 NAND
X1034 910 912 1035 NOR
X1035 911 913 1036 NAND
X1036 935 1036 1037 NOR
X1037 934 1035 1038 NOR
X1038 1037 1038 1039 NOR
X1039 counter_in.3 1039 1040 NAND
X1040 927 931 1041 NOR
X1041 926 930 1042 NAND
X1042 932 1041 1043 NOR
X1043 933 1042 1044 NAND
X1044 110 920 1045 NAND
X1045 compare5.0 109 1046 NAND
X1046 dt.0 compare5.0 1047 NOR
X1047 counter_in.0 1047 1048 NOR
X1048 922 1048 1049 NOR
X1049 1045 1049 1050 NAND
X1050 110 920 1051 NOR
X1051 924 1051 1052 NOR
X1052 1050 1052 1053 NAND
X1053 counter_in.3 1039 1054 NOR
X1054 111 1043 1055 NOR
X1055 counter_in.2 1044 1056 NOR
X1056 1055 1056 1057 NOR
X1057 1053 1057 1058 NAND
X1058 1040 1058 1059 NAND
X1059 1055 1059 1060 NOR
X1060 1054 1060 1061 NOR
X1061 1034 1061 1062 NAND
X1062 1033 1062 1063 NAND
X1063 1028 1063 1064 NOR
X1064 counter_in.5 1026 1065 NOR
X1065 1064 1065 1066 NOR
X1066 1018 1019 1067 NOR
X1067 1066 1067 1068 NAND
X1068 890 892 1069 NOR
X1069 891 893 1070 NAND
X1070 950 1069 1071 NOR
X1071 951 1070 1072 NAND
X1072 951 1070 1073 NOR
X1073 950 1069 1074 NAND
X1074 1071 1073 1075 NOR
X1075 1072 1074 1076 NAND
X1076 116 1076 1077 NOR
X1077 1019 1077 1078 NOR
X1078 1068 1078 1079 NAND
X1079 counter_in.7 1075 1080 NOR
X1080 counter_in.8 1010 1081 NOR
X1081 1080 1081 1082 NOR
X1082 1079 1082 1083 NAND
X1083 1013 1083 1084 NAND
X1084 counter_in.9 1007 1085 NOR
X1085 counter_in.10 994 1086 NOR
X1086 1085 1086 1087 NOR
X1087 1084 1087 1088 NAND
X1088 1002 1088 1089 NAND
X1089 counter_in.12 989 1090 NOR
X1090 120 1000 1091 NAND
X1091 1089 1091 1092 NAND
X1092 1090 1092 1093 NOR
X1093 990 1093 1094 NOR
X1094 985 1094 1095 NOR
X1095 dt.14 compare5.14 1096 NAND
X1096 dt.14 compare5.14 1097 NOR
X1097 1097 1098 NOT
X1098 1096 1098 1099 NAND
X1099 1099 1100 NOT
X1100 974 976 1101 NOR
X1101 975 977 1102 NAND
X1102 978 1101 1103 NOR
X1103 979 1102 1104 NAND
X1104 1100 1104 1105 NAND
X1105 1099 1103 1106 NAND
X1106 1105 1106 1107 NAND
X1107 counter_in.14 1107 1108 NAND
X1108 counter_in.13 984 1109 NAND
X1109 1108 1109 1110 NAND
X1110 1095 1110 1111 NOR
X1111 1096 1105 1112 NAND
X1112 16 compare5.15 1113 NOR
X1113 dt.15 45 1114 NOR
X1114 1113 1114 1115 NOR
X1115 1112 1115 1116 NOR
X1116 1116 1117 NOT
X1117 1112 1115 1118 NAND
X1118 1117 1118 1119 NAND
X1119 124 1119 1120 NAND
X1120 counter_in.14 1107 1121 NOR
X1121 1111 1121 1122 NOR
X1122 1120 1122 1123 NAND
X1123 124 1119 1124 NOR
X1124 28 counter_in.13 1125 NOR
X1125 29 counter_in.14 1126 NOR
X1126 compare2.15 124 1127 NAND
X1127 30 counter_in.15 1128 NAND
X1128 compare2.14 123 1129 NOR
X1129 1127 1128 1130 NAND
X1130 1125 1130 1131 NOR
X1131 1126 1129 1132 NOR
X1132 1131 1132 1133 NAND
X1133 compare2.12 121 1134 NOR
X1134 compare2.13 122 1135 NOR
X1135 1134 1135 1136 NOR
X1136 compare2.12 121 1137 NAND
X1137 1136 1137 1138 NAND
X1138 1133 1138 1139 NOR
X1139 20 counter_in.3 1140 NOR
X1140 compare2.3 112 1141 NOR
X1141 1140 1141 1142 NOR
X1142 1142 1143 NOT
X1143 19 counter_in.2 1144 NAND
X1144 compare2.2 111 1145 NAND
X1145 1144 1145 1146 NAND
X1146 1143 1146 1147 NOR
X1147 27 counter_in.11 1148 NAND
X1148 26 counter_in.10 1149 NAND
X1149 1148 1149 1150 NAND
X1150 27 counter_in.11 1151 NOR
X1151 compare2.11 120 1152 NAND
X1152 compare2.10 119 1153 NAND
X1153 1150 1151 1154 NOR
X1154 1153 1154 1155 NAND
X1155 compare2.4 113 1156 NAND
X1156 compare2.0 109 1157 NOR
X1157 24 counter_in.8 1158 NOR
X1158 compare2.8 117 1159 NAND
X1159 1157 1158 1160 NOR
X1160 1156 1160 1161 NAND
X1161 1155 1161 1162 NOR
X1162 1147 1162 1163 NAND
X1163 22 counter_in.6 1164 NAND
X1164 compare2.7 116 1165 NOR
X1165 23 counter_in.7 1166 NOR
X1166 compare2.6 115 1167 NAND
X1167 compare2.5 114 1168 NAND
X1168 1164 1167 1169 NAND
X1169 1165 1166 1170 NOR
X1170 1168 1170 1171 NAND
X1171 1169 1171 1172 NOR
X1172 compare2.8 117 1173 NOR
X1173 compare2.9 118 1174 NOR
X1174 1173 1174 1175 NOR
X1175 25 counter_in.9 1176 NOR
X1176 compare2.1 110 1177 NOR
X1177 18 counter_in.1 1178 NAND
X1178 1176 1177 1179 NOR
X1179 1175 1179 1180 NAND
X1180 compare2.4 113 1181 NOR
X1181 compare2.5 114 1182 NOR
X1182 1181 1182 1183 NOR
X1183 17 counter_in.0 1184 NOR
X1184 compare2.0 109 1185 NAND
X1185 18 counter_in.1 1186 NOR
X1186 compare2.1 110 1187 NAND
X1187 1184 1186 1188 NOR
X1188 1185 1187 1189 NAND
X1189 1183 1188 1190 NAND
X1190 1180 1190 1191 NOR
X1191 1172 1191 1192 NAND
X1192 1163 1192 1193 NOR
X1193 1139 1193 1194 NAND
X1194 1150 1152 1195 NAND
X1195 1164 1166 1196 NOR
X1196 1165 1196 1197 NOR
X1197 1178 1189 1198 NAND
X1198 1147 1198 1199 NAND
X1199 1140 1144 1200 NOR
X1200 1141 1200 1201 NOR
X1201 1199 1201 1202 NAND
X1202 1156 1202 1203 NAND
X1203 1183 1203 1204 NAND